[General]
network = Scenario
sim-time-limit = 5s
debug-on-errors = true
cmdenv-express-mode = true
image-path = ../../../../images


output-scalar-file = scalarsTest_Veinsinet.sca
output-vector-file = vectors.vec
**.*.vector-recording = true
**.*.vector-recording-intervals = 0..900


# UDPBasicApp
#Scenario.node[*].numUdpApps = 1
#Scenario.node[*].udpApp[0].typename = "UDPBasicApp"
#Scenario.node[*].udpApp[0].destAddresses = "224.0.0.1"
#Scenario.node[*].udpApp[0].multicastInterface = "wlan0"
#Scenario.node[*].udpApp[0].joinLocalMulticastGroups = true
#Scenario.node[*].udpApp[0].localPort = 9001
#Scenario.node[*].udpApp[0].destPort = 9001
#Scenario.node[*].udpApp[0].messageLength = 100B
#Scenario.node[*].udpApp[0].startTime = uniform(0s, 5s)
#Scenario.node[*].udpApp[0].sendInterval = 5s

##########################################################
#                       RSU SETTINGS                     #
#                                                        #
#                                                        #
##########################################################
*.rsu.mobility.x = 2000
*.rsu.mobility.y = 2000
*.rsu.mobility.z = 3

*.rsu.applType = "TraCIDemoRSU11p"
*.rsu.appl.headerLength = 80 bit
*.rsu.appl.sendBeacons = false
*.rsu.appl.dataOnSch = false
*.rsu.appl.beaconInterval = 1s
*.rsu.appl.beaconUserPriority = 7
*.rsu.appl.dataUserPriority = 5




# Ieee80211MgmtAdhoc
Scenario.node[*].wlan[0].mgmtType = "Ieee80211MgmtAP"
Scenario.node[*].wlan[0].bitrate = 6Mbps
Scenario.node[*].wlan[0].radio.transmitter.power = 2mW

# HostAutoConfigurator
Scenario.node[*].ac_wlan.interfaces = "wlan0"
Scenario.node[*].ac_wlan.mcastGroups = "224.0.0.1"

# VeinsInetMobility
Scenario.node[*].mobilityType = "VeinsInetMobility"
Scenario.node[*].mobility.constraintAreaMinX = 0m
Scenario.node[*].mobility.constraintAreaMinY = 0m
Scenario.node[*].mobility.constraintAreaMinZ = 0m
Scenario.node[*].mobility.constraintAreaMaxX = 1000m
Scenario.node[*].mobility.constraintAreaMaxY = 1000m
Scenario.node[*].mobility.constraintAreaMaxZ = 0m

# VeinsInetManager
Scenario.manager.updateInterval = 0.1s
Scenario.manager.host = "localhost"
Scenario.manager.port = 9999
Scenario.manager.autoShutdown = true
Scenario.manager.launchConfig = xmldoc("square.launchd.xml")
#Scenario.manager.moduleType = "org.car2x.veins.subprojects.veins_inet.example.Car"


#############################test
*.manager.moduleType = "vtype0=org.car2x.veins.subprojects.veins_inet.example.Car pedestrian=org.car2x.veins.nodes.Pedestrian"
*.manager.moduleName = "vtype0=node pedestrian=pedestrianNode"
*.manager.moduleDisplayString = "vtype0='i=veins/node/car;is=vs' pedestrian='i=veins/node/pedestrian;is=vs'"

**.vector-recording = true
