<configuration>
<input>
<net-file value="straight.net.xml"/>
<route-files value="straight.rou.xml"/>
</input>
<time>
<begin value="0"/>
<end value="1000"/>
</time>
<gui_only>
 <start value="true"/>
</gui_only>
</configuration>