<?xml version="1.0" encoding="UTF-8"?>

<!-- generated on 12/30/20 19:25:46 by SUMO netconvert Version 0.30.0
<?xml version="1.0" encoding="UTF-8"?>

<configuration xmlns:xsi="http://www.w3.org/2001/XMLSchema-instance" xsi:noNamespaceSchemaLocation="http://sumo.dlr.de/xsd/netconvertConfiguration.xsd">

    <input>
        <node-files value="singleSide.nod.xml"/>
        <edge-files value="singleSide.edg.xml"/>
    </input>

    <output>
        <output-file value="singleSide.net.xml"/>
    </output>

</configuration>
-->

<net version="0.27" xmlns:xsi="http://www.w3.org/2001/XMLSchema-instance" xsi:noNamespaceSchemaLocation="http://sumo.dlr.de/xsd/net_file.xsd">

    <location netOffset="76000.00,0.00" convBoundary="0.00,0.00,76000.00,0.00" origBoundary="-76000.00,0.00,0.00,0.00" projParameter="!"/>

    <edge id="a" from="X" to="Y" priority="-1">
        <lane id="a_0" index="0" speed="40.00" length="76000.00" shape="-0.00,-11.55 76000.00,-11.55"/>
        <lane id="a_1" index="1" speed="40.00" length="76000.00" shape="-0.00,-8.25 76000.00,-8.25"/>
        <lane id="a_2" index="2" speed="40.00" length="76000.00" shape="-0.00,-4.95 76000.00,-4.95"/>
        <lane id="a_3" index="3" speed="40.00" length="76000.00" shape="-0.00,-1.65 76000.00,-1.65"/>
    </edge>

    <junction id="X" type="dead_end" x="0.00" y="0.00" incLanes="" intLanes="" shape="-0.00,-0.05 -0.00,-13.15"/>
    <junction id="Y" type="dead_end" x="76000.00" y="0.00" incLanes="a_0 a_1 a_2 a_3" intLanes="" shape="76000.00,-13.15 76000.00,-0.05"/>

</net>
