<routes>


<vType sigma="0" id="pedestrian" length="0.4" minGap="0" guiShape="pedestrian" width="0.6" maxSpeed="1.5"/>
<vType carFollowing="Krauss" tau="0.5" id="vtype0" sigma="0"  length="5.0" minGap="2.5" maxSpeed="27.7778"/>

<flow id="flowXtoY_1" type="vtype0"  begin="0" period="1" accel="2.6" decel="4.5"  departPos="0" departSpeed="27.7778" departLane="1" >
<route edges="a"/>
</flow>

<flow id="flowXtoY_0" type="vtype0" begin="0.5" period="1" accel="2.6" decel="4.5"  departPos="0" departSpeed="27.7778" departLane="0" >
<route edges="a"/>
</flow>

</routes>